Version 4
SHEET 1 880 680
WIRE 256 112 144 112
WIRE -32 128 -272 128
WIRE 80 128 -32 128
WIRE -32 144 -32 128
WIRE 256 144 256 112
WIRE -272 176 -272 128
WIRE -32 224 -32 208
WIRE 144 224 144 144
WIRE 144 224 -32 224
WIRE 256 224 256 208
WIRE 256 224 144 224
WIRE 144 240 144 224
WIRE -272 272 -272 256
WIRE -272 368 -272 352
FLAG 144 240 0
FLAG -272 368 0
SYMBOL ncp1117_50-x 112 128 R0
SYMATTR InstName U1
SYMBOL cap -48 144 R0
SYMATTR InstName C1
SYMATTR Value 10µ
SYMBOL cap 240 144 R0
SYMATTR InstName C2
SYMATTR Value 10µ
SYMBOL voltage -272 256 R0
WINDOW 123 0 0 Left 0
WINDOW 39 0 0 Left 0
SYMATTR InstName Vcc
SYMATTR Value 12
SYMBOL voltage -272 160 R0
WINDOW 123 0 0 Left 0
WINDOW 39 0 0 Left 0
SYMATTR InstName Vripple
SYMATTR Value SINE(0 0.1 1K)
SYMBOL res 480 128 R0
SYMATTR InstName R1
SYMBOL res 480 240 R0
SYMATTR InstName R2
SYMBOL res 480 352 R0
SYMATTR InstName R3
SYMBOL res 480 464 R0
SYMATTR InstName R4
SYMBOL res 672 128 R0
SYMATTR InstName R5
