Version 4
SHEET 1 2024 780
WIRE -32 112 -288 112
WIRE 208 112 48 112
WIRE 448 112 208 112
WIRE 720 112 448 112
WIRE 864 112 720 112
WIRE 1088 112 864 112
WIRE 1408 112 1088 112
WIRE 1472 112 1408 112
WIRE 1536 112 1472 112
WIRE 1760 112 1632 112
WIRE 720 128 720 112
WIRE 864 144 864 112
WIRE 1408 176 1408 112
WIRE 1472 176 1472 112
WIRE 208 224 208 112
WIRE 448 224 448 112
WIRE 720 240 720 208
WIRE -288 304 -288 112
WIRE 1024 304 800 304
WIRE 1088 320 1088 112
WIRE 1760 320 1760 112
WIRE 720 336 720 320
WIRE 800 336 800 304
WIRE 800 336 720 336
WIRE 1024 336 1024 304
WIRE 1056 336 1024 336
WIRE 720 352 720 336
WIRE 1232 352 1120 352
WIRE 1296 352 1232 352
WIRE 1408 352 1408 240
WIRE 1408 352 1376 352
WIRE 1472 352 1472 256
WIRE 1472 352 1408 352
WIRE 1552 352 1552 160
WIRE 1552 352 1472 352
WIRE 864 368 864 224
WIRE 928 368 864 368
WIRE 1024 368 1008 368
WIRE 1056 368 1024 368
WIRE 1232 368 1232 352
WIRE 1312 400 1296 400
WIRE 1376 400 1360 400
WIRE 864 416 864 368
WIRE 1296 464 1296 400
WIRE 1376 464 1376 400
WIRE 720 480 720 432
WIRE 1024 480 1024 368
WIRE 1232 480 1232 448
WIRE 1232 480 1024 480
WIRE -288 576 -288 384
WIRE 208 576 208 288
WIRE 448 576 448 288
WIRE 720 576 720 560
WIRE 864 576 864 480
WIRE 1088 576 1088 384
WIRE 1760 576 1760 400
FLAG 208 576 0
FLAG -288 576 0
FLAG 1760 576 0
FLAG 448 576 0
FLAG 864 576 0
FLAG 1088 576 0
FLAG 720 576 0
SYMBOL res 64 96 R90
WINDOW 0 0 56 VBottom 2
WINDOW 3 32 56 VTop 2
SYMATTR InstName R1
SYMATTR Value 0.01
SYMBOL schottky 224 288 R180
WINDOW 0 24 64 Left 2
WINDOW 3 24 0 Left 2
SYMATTR InstName D2
SYMBOL voltage -288 288 R0
WINDOW 123 0 0 Left 0
WINDOW 39 0 0 Left 0
SYMATTR InstName Vbatt
SYMATTR Value 12
SYMBOL res 1744 304 R0
SYMATTR InstName R2
SYMATTR Value 10R
SYMBOL res 1456 160 R0
SYMATTR InstName R3
SYMATTR Value 10k
SYMBOL pmos 1632 160 M270
SYMATTR InstName M1
SYMATTR Value IRF7404
SYMBOL zener 464 288 R180
WINDOW 0 24 64 Left 2
WINDOW 3 24 0 Left 2
SYMATTR InstName D3
SYMATTR Value BZX84C22VL
SYMBOL References\\LT1389-2.5 864 448 R0
SYMATTR InstName U1
SYMBOL res 848 128 R0
SYMATTR InstName R4
SYMATTR Value 10K
SYMBOL Comparators\\LT1017 1088 352 R0
SYMATTR InstName U2
SYMBOL res 704 112 R0
SYMATTR InstName R5
SYMATTR Value 22k
SYMBOL res 704 464 R0
SYMATTR InstName R6
SYMATTR Value 5.6k
SYMBOL res 704 224 R0
SYMATTR InstName R7
SYMATTR Value 7k
SYMBOL res 704 336 R0
SYMATTR InstName R8
SYMATTR Value 3k
SYMBOL res 1024 352 R90
WINDOW 0 0 56 VBottom 2
WINDOW 3 32 56 VTop 2
SYMATTR InstName R9
SYMATTR Value 1K
SYMBOL res 1248 464 R180
WINDOW 0 36 76 Left 2
WINDOW 3 36 40 Left 2
SYMATTR InstName R10
SYMATTR Value 40K
SYMBOL zener 1424 240 R180
WINDOW 0 24 64 Left 2
WINDOW 3 24 0 Left 2
SYMATTR InstName D1
SYMATTR Value TDZ6_2B
SYMBOL sw 1280 352 R270
SYMATTR InstName S1
SYMATTR Value MYSW
SYMBOL voltage 1392 464 R90
WINDOW 123 0 0 Left 0
WINDOW 39 0 0 Left 0
SYMATTR InstName Vbatt1
SYMATTR Value 5
TEXT -314 688 Left 2 !.dc Vbatt -10 30
TEXT 8 24 Center 2 ;Fuse\nOCP
TEXT 200 0 Center 2 ;Reverse\nPolarity\nProtection
TEXT 400 32 Left 2 ;OVP (22V)
TEXT 696 -8 Left 2 ;Adjustable UVLO\n(10K trim-pot for 6V-17V)\nwith Hysteresis (10% at 10V)
TEXT 1456 -16 Left 2 ;High side Switch
TEXT 1416 728 Left 2 !.model MYSW SW(Ron=1 Roff=1Meg Vt=.5 Vh=0)
TEXT 1248 608 Left 2 ;Power switch\n(modelled as voltage controlled switch\nto analyse transients)
TEXT 1864 368 Left 2 ;Load
